Circuit: * C:\Users\MLA\iCloudDrive\02_Projekte\01_laufend\Heizung_iRT\Heizung_iRT\Simulation\iRT_3.asc

Direct Newton iteration for .op point succeeded.

Date: Mon Dec 12 17:17:37 2022
Total elapsed time: 0.145 seconds.

tnom = 27
temp = 27
method = modified trap
totiter = 17009
traniter = 16988
tranpoints = 6106
accept = 4712
rejected = 1394
matrix size = 33
fillins = 37
solver = Normal
Matrix Compiler1: 3.07 KB object code size  0.5/0.3/[0.2]
Matrix Compiler2: 2.97 KB object code size  0.2/0.3/[0.2]

